code/data/casedata/case59_6.py
# Copyright (c) 1996-2015 PSERC. All rights reserved.
# Use of this source code is governed by a BSD-style
# license that can be found in the LICENSE file.

"""Power flow data for IEEE 14 bus test case.
"""

from numpy import array

def case59_6():
    """Power flow data for IEEE 14 bus test case.
    Please see L{caseformat} for details on the case file format.

    This data was converted from IEEE Common Data Format
    (ieee14cdf.txt) on 20-Sep-2004 by cdf2matp, rev. 1.11

    Converted from IEEE CDF file from:
    U{http://www.ee.washington.edu/research/pstca/}

    08/19/93 UW ARCHIVE           100.0  1962 W IEEE 14 Bus Test Case

    @return: Power flow data for IEEE 14 bus test case.
    """
    ppc = {"version": '2'}

    ##-----  Power Flow Data  -----##
    ## system MVA base
    ppc["baseMVA"] = 100.0

    ## bus data
    # bus_i type Pd Qd Gs Bs area Vm Va baseKV zone Vmax Vmin
    ppc["bus"] = array([
        [1       ,	2,	0,	0,	0,	0,	1,	1,	-19.5127,	15,	1,	1.1,	0.9,        0.01 ,   0.01 ],
        [2       ,	1,	270,	30,	0,	0,	1,	1.03679,	-19.5127,	330,	1,	1.1,	0.9,        0 ,      0.01 ],
        [3       ,	2,	0,	0,	0,	0,	2,	1,	4.4291,	20,	1,	1.1,	0.9,        0.01 ,   0.01 ],
        [4       ,	2,	0,	0,	0,	0,	2,	1,	1.9815,	20,	1,	1.1,	0.9,        0.01 ,   0.01 ],
        [5       ,	2,	0,	0,	0,	0,	2,	1,	1.4392,	20,	1,	1.1,	0.9,        0.01 ,   0.01 ],
        [6       ,	3,	0,	0,	0,	0,	2,	1,	0,	20,	1,	1.1,	0.9,        0.01 ,   0.01 ],
        [7       ,	2,	235,	25+29.41,	0,	0,	2,	1.045,	-8.29,	330,	1,	1.1,	0.9,        0.01 ,   0.01 ],
        [8       ,	1,	80,	10,	0,	0,	2,	1.01211,	-3.2793,	330,	1,	1.1,	0.9,        0 ,      0.01 ],
        [9       ,	1,	1110,	120,	0,	0,	2,	0.99682,	-7.9155,	330,	1,	1.1,	0.9,        0 ,      0.01 ],
        [10      ,	1,	125,	15,	0,	0,	2,	1.00038,	-7.2687,	330,	1,	1.1,	0.9,        0 ,      0.01 ],
        [11      ,	1,	0,	0,	0,	0,	2,	1.0023,	-6.1947,	330,	1,	1.1,	0.9,        0 ,      0 ],
        [12      ,	1,	0,	0,	0,	0,	2,	1.03959,	-8.5054,	500,	1,	1.1,	0.9,        0 ,      0 ],
        [13      ,	1,	1035,	110,	0,	0,	2,	1.00935,	-12.9296,	330,	1,	1.1,	0.9,        0 ,      0.01 ],
        [14      ,	1,	1000,	110,	0,	400,	2,	1.019,	-13.3482,	330,	1,	1.1,	0.9,        0 ,      0.01 ],
        [15      ,	1,	0,	0,	0,	0,	2,	1.0398,	-10.9485,	500,	1,	1.1,	0.9,        0 ,      0 ],
        [16      ,	1,	0,	0,	0,	0,	2,	1.03367,	-13.2379,	330,	1,	1.1,	0.9,        0 ,      0 ],
        [17      ,	1,	290,	30,	0,	0,	2,	1.01172,	-6.6853,	330,	1,	1.1,	0.9,        0 ,      0.01 ],
        [18      ,	1,	1105,	120,	0,	300,	2,	1.03186,	-15.1688,	330,	1,	1.1,	0.9,        0 ,      0.01 ],
        [19      ,	1,	750,	80,	0,	0,	2,	1.033,	-17.1196,	330,	1,	1.1,	0.9,        0 ,      0.01 ],
        [20      ,	2,	0,	0,	0,	0,	3,	1,	0.4853,	20,	1,	1.1,	0.9,        0.01 ,   0.01 ],
        [21      ,	2,	0,	0,	0,	0,	3,	1,	-7.7018,	20,	1,	1.1,	0.9,        0.01 ,   0.01 ],
        [22      ,	1,	0,	0,	0,	0,	3,	1.00644,	-7.051,	500,	1,	1.1,	0.9,        0 ,      0 ],
        [23      ,	1,	0,	0,	0,	0,	3,	1.00801,	-15.8282,	500,	1,	1.1,	0.9,        0 ,      0 ],
        [24      ,	1,	0,	0,	0,	0,	3,	1.01969,	-16.9411,	500,	1,	1.1,	0.9,        0 ,      0 ],
        [25      ,	1,	900,	90,	0,	0,	3,	1.02213,	-18.3791,	500,	1,	1.1,	0.9,        0 ,      0.01 ],
        [26      ,	1,	470,	50,	0,	0,	3,	1.02473,	-18.3659,	500,	1,	1.1,	0.9,        0 ,      0.01 ],
        [27      ,	1,	620,	100,	0,	0,	3,	1.05011,	-23.8883,	500,	1,	1.1,	0.9,        0 ,      0.01 ],
        [28      ,	1,	140,	15,	0,	0,	3,	1.04374,	-19.5631,	330,	1,	1.1,	0.9,        0 ,      0.01 ],
        [29      ,	1,	0,	0,	0,	0,	3,	1.01015,	-16.5603,	330,	1,	1.1,	0.9,        0 ,      0 ],
        [30      ,	1,	0,	0,	0,	0,	3,	1.04347,	-17.8534,	330,	1,	1.1,	0.9,        0 ,      0 ],
        [31      ,	1,	92,	10,	0,	0,	3,	1.01111,	-15.2509,	220,	1,	1.1,	0.9,        0 ,      0.01 ],
        [32      ,	2,	1625,	165-54.172,	0,	0,	3,	1.015,	-21.1651,	220,	1,	1.1,	0.9,        0.01 ,   0.01 ],
        [33      ,	1,	180,	20,	0,	0,	3,	1.01714,	-20.274,	220,	1,	1.1,	0.9,        0 ,      0.01 ],
        [34      ,	1,	0,	0,	0,	0,	3,	1.0448,	-23.891,	275,	1,	1.1,	0.9,        0 ,      0 ],
        [35      ,	2,	0,	0,	0,	0,	4,	1,	-0.8052,	20,	1,	1.1,	0.9,        0.01 ,   0.01 ],
        [36      ,	2,	0,	0,	0,	0,	4,	1,	16.4119,	20,	1,	1.1,	0.9,        0.01 ,   0.01 ],
        [37      ,	2,	0,	0,	0,	0,	4,	1,	14.9049,	20,	1,	1.1,	0.9,        0.01 ,   0.01 ],
        [38      ,	2,	0,	0,	0,	0,	4,	1,	9.423,	20,	1,	1.1,	0.9,        0.01 ,   0.01 ],
        [39      ,	1,	730,	75,	0,	0,	4,	1.00581,	2.2868,	275,	1,	1.1,	0.9,        0 ,      0.01 ],
        [40      ,	1,	540,	55,	0,	0,	4,	0.99822,	5.7849,	275,	1,	1.1,	0.9,        0 ,      0.01 ],
        [41      ,	1,	0,	0,	0,	0,	4,	0.99977,	7.5238,	275,	1,	1.1,	0.9,        0 ,      0 ],
        [42      ,	1,	110,	10,	0,	0,	4,	1.00708,	8.5531,	275,	1,	1.1,	0.9,        0 ,      0.01 ],
        [43      ,	1,	190,	20,	0,	60,	4,	1.02927,	-8.7525,	275,	1,	1.1,	0.9,        0 ,      0.01 ],
        [44      ,	1,	390,	40,	0,	0,	4,	1.00824,	-7.6118,	275,	1,	1.1,	0.9,        0 ,      0.01 ],
        [45      ,	1,	420,	45,	0,	30,	4,	1.00496,	-13.9715,	275,	1,	1.1,	0.9,        0 ,      0.01 ],
        [46      ,	2,	922,	100+0.232,	0,	0,	4,	1,	-14.1984,	275,	1,	1.1,	0.9,        0.01 ,   0.01 ],
        [47      ,	1,	0,	0,	0,	0,	4,	1.0469,	-7.904,	275,	1,	1.1,	0.9,        0 ,      0 ],
        [48      ,	1,	0,	0,	0,	-30,	4,	1.01942,	-7.9158,	330,	1,	1.1,	0.9,        0 ,      0 ],
        [49      ,	1,	0,	0,	0,	-60,	4,	1.03304,	-8.0342,	330,	1,	1.1,	0.9,        0 ,      0 ],
        [50      ,	1,	0,	0,	0,	-90,	4,	1.04575,	-8.1927,	330,	1,	1.1,	0.9,        0 ,      0 ],
        [51      ,	2,	0,	0,	0,	0,	5,	1,	-8.4966,	20,	1,	1.1,	0.9,        0.01 ,   0.01 ],
        [52      ,	2,	0,	0,	0,	0,	5,	1,	-5.7234,	15,	1,	1.1,	0.9,        0.01 ,   0.01 ],
        [53      ,	2,	0,	0,	0,	0,	5,	1,	-8.3639,	15,	1,	1.1,	0.9,        0.01 ,   0.01 ],
        [54      ,	1,	170,	20,	0,	0,	5,	1.01653,	-16.401,	275,	1,	1.1,	0.9,        0 ,      0.01 ],
        [55      ,	1,	0,	0,	0,	0,	5,	0.99495,	-13.2666,	275,	1,	1.1,	0.9,        0 ,      0 ],
        [56      ,	1,	0,	0,	0,	0,	5,	0.99894,	-15.4048,	275,	1,	1.1,	0.9,        0 ,      0 ],
        [57      ,	2,	565,	65+3.745,	0,	0,	5,	1,	-16.1799,	275,	1,	1.1,	0.9,        0.01 ,   0.01 ],
        [58      ,	1,	450,	50,	0,	0,	5,	1.00133,	-16.7722,	275,	1,	1.1,	0.9,        0 ,      0.01 ],
        [59      ,	2,	117,	15+109.338,	0,	0,	5,	1.03,	-23.781,	275,	1,	1.1,	0.9,        0.01 ,   0.01 ]
    ])


    ## generator data
    # bus, Pg, Qg, Qmax, Qmin, Vg, mBase, status, Pmax, Pmin, Pc1, Pc2,
    # Qc1min, Qc1max, Qc2min, Qc2max, ramp_agc, ramp_10, ramp_30, ramp_q, apf  # p_g of 3 to 8 is all change from 0 to 40
    ppc["gen"] = array([
        [1  ,	0,	-204.39,	290.564,	-290.564,	1,	666.6,	1,	600,	0,	0,	0,	0,	0,	0,	0,	0,	0,	0,	0,	0],
        [3  ,	1680,	-160.451,	871.824,	-871.824,	1,	2000.1,	1,	1800,	0,	0,	0,	0,	0,	0,	0,	0,	0,	0,	0,	0],
        [4  ,	1470,	-21.784,	726.54,	-726.54,	1,	1666.8,	1,	1500,	0,	0,	0,	0,	0,	0,	0,	0,	0,	0,	0,	0],
        [5  ,	1470,	11.211,	726.54,	-726.54,	1,	1666.8,	1,	1500,	0,	0,	0,	0,	0,	0,	0,	0,	0,	0,	0,	0],
        [6  ,	1457.542,	-183.682,	871.824,	-871.824,	1,	2000.1,	1,	1800,	0,	0,	0,	0,	0,	0,	0,	0,	0,	0,	0,	0],
        [20 ,	3300,	56.332,	1743.648,	-1743.648,	1,	4000.2,	1,	3600,	0,	0,	0,	0,	0,	0,	0,	0,	0,	0,	0,	0],
        [21 ,	786,	-13.893,	387.418,	-387.418,	1,	888.8,	1,	800,	0,	0,	0,	0,	0,	0,	0,	0,	0,	0,	0,	0],
        [35 ,	1050,	-97.848,	581.127,	-581.127,	1,	1333.2,	1,	1200,	0,	0,	0,	0,	0,	0,	0,	0,	0,	0,	0,	0],
        [36 ,	810,	13.997,	435.846,	-435.846,	1,	999.9,	1,	900,	0,	0,	0,	0,	0,	0,	0,	0,	0,	0,	0,	0],
        [37 ,	760,	50.356,	387.418,	-387.418,	1,	888.8,	1,	800,	0,	0,	0,	0,	0,	0,	0,	0,	0,	0,	0,	0],
        [38 ,	735,	11.638,	435.846,	-435.846,	1,	999.9,	1,	900,	0,	0,	0,	0,	0,	0,	0,	0,	0,	0,	0,	0],
        [51 ,	270,	-42.195,	145.282,	-145.282,	1,	333.3,	1,	300,	0,	0,	0,	0,	0,	0,	0,	0,	0,	0,	0,	0],
        [52 ,	800,	-38.782,	600,	-600,	1,	1000,	1,	800,	0,	0,	0,	0,	0,	0,	0,	0,	0,	0,	0,	0],
        [53 ,	240,	-22.338,	145.326,	-145.326,	1,	333.4,	1,	300,	0,	0,	0,	0,	0,	0,	0,	0,	0,	0,	0,	0]
    ])

    ## branch data
    # fbus, tbus, r, x, b, rateA, rateB, rateC, ratio, angle, status, angmin, angmax
    ppc["branch"] = array([
        [2       , 19    ,	0.0084,	0.0667,	0.817,	0,	0,	0,	0,	0,	1,	-360,	360],
        [2       , 19    ,	0.0084,	0.0667,	0.817,	0,	0,	0,	0,	0,	1,	-360,	360],
        [2       , 19    ,	0.0078,	0.062,	0.76,	0,	0,	0,	0,	0,	1,	-360,	360],
        [2       , 19    ,	0.0078,	0.062,	0.76,	0,	0,	0,	0,	0,	1,	-360,	360],
        [2       , 28    ,	0.0045,	0.0356,	0.437,	0,	0,	0,	0,	0,	1,	-360,	360],
        [2       , 28    ,	0.0045,	0.0356,	0.437,	0,	0,	0,	0,	0,	1,	-360,	360],
        [2       , 28    ,	0.0109,	0.0868,	0.76,	0,	0,	0,	0,	0,	1,	-360,	360],
        [7       , 8     ,	0.0096,	0.076,	0.931,	0,	0,	0,	0,	0,	1,	-360,	360],
        [7       , 8     ,	0.0096,	0.076,	0.931,	0,	0,	0,	0,	0,	1,	-360,	360],
        [7       , 50    ,	0.0037,	0.046,	0.73,	0,	0,	0,	0,	0,	1,	-360,	360],
        [7       , 50    ,	0.0037,	0.046,	0.73,	0,	0,	0,	0,	0,	1,	-360,	360],
        [8       , 9     ,	0.0045,	0.0356,	0.437,	0,	0,	0,	0,	0,	1,	-360,	360],
        [8       , 9     ,	0.0045,	0.0356,	0.437,	0,	0,	0,	0,	0,	1,	-360,	360],
        [8       , 14    ,	0.0066,	0.0527,	0.646,	0,	0,	0,	0,	0,	1,	-360,	360],
        [8       , 14    ,	0.0066,	0.0527,	0.646,	0,	0,	0,	0,	0,	1,	-360,	360],
        [8       , 17    ,	0.0066,	0.0527,	0.646,	0,	0,	0,	0,	0,	1,	-360,	360],
        [8       , 17    ,	0.0066,	0.0527,	0.646,	0,	0,	0,	0,	0,	1,	-360,	360],
        [9       , 10    ,	0.0018,	0.014,	0.171,	0,	0,	0,	0,	0,	1,	-360,	360],
        [9       , 10    ,	0.0018,	0.014,	0.171,	0,	0,	0,	0,	0,	1,	-360,	360],
        [9       , 11    ,	0.0008,	0.0062,	0.076,	0,	0,	0,	0,	0,	1,	-360,	360],
        [10      , 13    ,	0.0031,	0.0248,	0.304,	0,	0,	0,	0,	0,	1,	-360,	360],
        [10      , 13    ,	0.0031,	0.0248,	0.304,	0,	0,	0,	0,	0,	1,	-360,	360],
        [10      , 13    ,	0.0031,	0.0248,	0.304,	0,	0,	0,	0,	0,	1,	-360,	360],
        [11      , 14    ,	0.0045,	0.0356,	0.437,	0,	0,	0,	0,	0,	1,	-360,	360],
        [12      , 15    ,	0.001,	0.0145,	1.54,	0,	0,	0,	0,	0,	1,	-360,	360],
        [12      , 15    ,	0.001,	0.0145,	1.54,	0,	0,	0,	0,	0,	1,	-360,	360],
        [13      , 14    ,	0.0014,	0.0108,	0.133,	0,	0,	0,	0,	0,	1,	-360,	360],
        [13      , 14    ,	0.0014,	0.0108,	0.133,	0,	0,	0,	0,	0,	1,	-360,	360],
        [13      , 16    ,	0.0019,	0.0155,	0.19,	0,	0,	0,	0,	0,	1,	-360,	360],
        [14      , 19    ,	0.007,	0.0558,	0.684,	0,	0,	0,	0,	0,	1,	-360,	360],
        [16      , 18    ,	0.001,	0.0077,	0.095,	0,	0,	0,	0,	0,	1,	-360,	360],
        [16      , 19    ,	0.0049,	0.0388,	0.475,	0,	0,	0,	0,	0,	1,	-360,	360],
        [17      , 18    ,	0.0051,	0.0403,	0.494,	0,	0,	0,	0,	0,	1,	-360,	360],
        [17      , 18    ,	0.0051,	0.0403,	0.494,	0,	0,	0,	0,	0,	1,	-360,	360],
        [17      , 19    ,	0.0072,	0.0574,	0.703,	0,	0,	0,	0,	0,	1,	-360,	360],
        [17      , 19    ,	0.0072,	0.0574,	0.703,	0,	0,	0,	0,	0,	1,	-360,	360],
        [18      , 19    ,	0.0051,	0.0403,	0.494,	0,	0,	0,	0,	0,	1,	-360,	360],
        [22      , 23    ,	0.002,	0.028,	0.74,	0,	0,	0,	0,	0,	1,	-360,	360],
        [22      , 23    ,	0.002,	0.028,	0.74,	0,	0,	0,	0,	0,	1,	-360,	360],
        [22      , 24    ,	0.0011,	0.016,	1.7,	0,	0,	0,	0,	0,	1,	-360,	360],
        [22      , 24    ,	0.0011,	0.016,	1.7,	0,	0,	0,	0,	0,	1,	-360,	360],
        [23      , 24    ,	0.0003,	0.004,	0.424,	0,	0,	0,	0,	0,	1,	-360,	360],
        [24      , 25    ,	0.0002,	0.003,	0.32,	0,	0,	0,	0,	0,	1,	-360,	360],
        [24      , 26    ,	0.0003,	0.0045,	0.447,	0,	0,	0,	0,	0,	1,	-360,	360],
        [24      , 26    ,	0.0003,	0.0045,	0.447,	0,	0,	0,	0,	0,	1,	-360,	360],
        [25      , 26    ,	0.0001,	0.0012,	0.127,	0,	0,	0,	0,	0,	1,	-360,	360],
        [26      , 27    ,	0.0023,	0.0325,	3.445,	0,	0,	0,	0,	0,	1,	-360,	360],
        [26      , 27    ,	0.0023,	0.0325,	3.445,	0,	0,	0,	0,	0,	1,	-360,	360],
        [28      , 29    ,	0.0135,	0.10695,	0.58267,	0,	0,	0,	0,	0,	1,	-360,	360],
        [28      , 29    ,	0.0135,	0.10695,	0.58267,	0,	0,	0,	0,	0,	1,	-360,	360],
        [28      , 29    ,	0.0135,	0.10695,	0.58267,	0,	0,	0,	0,	0,	1,	-360,	360],
        [29      , 30    ,	0,	-0.0337,	0,	0,	0,	0,	0,	0,	1,	-360,	360],
        [29      , 30    ,	0,	-0.0337,	0,	0,	0,	0,	0,	0,	1,	-360,	360],
        [31      , 32    ,	0.006,	0.045,	0.3,	0,	0,	0,	0,	0,	1,	-360,	360],
        [31      , 32    ,	0.006,	0.045,	0.3,	0,	0,	0,	0,	0,	1,	-360,	360],
        [31      , 32    ,	0.006,	0.045,	0.3,	0,	0,	0,	0,	0,	1,	-360,	360],
        [32      , 33    ,	0.001,	0.01,	0.26,	0,	0,	0,	0,	0,	1,	-360,	360],
        [32      , 33    ,	0.001,	0.01,	0.26,	0,	0,	0,	0,	0,	1,	-360,	360],
        [34      , 59    ,	0.007,	0.05,	0.19,	0,	0,	0,	0,	0,	1,	-360,	360],
        [34      , 59    ,	0.007,	0.05,	0.19,	0,	0,	0,	0,	0,	1,	-360,	360],
        [39      , 40    ,	0.0039,	0.0475,	0.381,	0,	0,	0,	0,	0,	1,	-360,	360],
        [39      , 40    ,	0.0039,	0.0475,	0.381,	0,	0,	0,	0,	0,	1,	-360,	360],
        [39      , 42    ,	0.0054,	0.05,	0.189,	0,	0,	0,	0,	0,	1,	-360,	360],
        [39      , 43    ,	0.018,	0.122,	0.79,	0,	0,	0,	0,	0,	1,	-360,	360],
        [39      , 43    ,	0.018,	0.122,	0.79,	0,	0,	0,	0,	0,	1,	-360,	360],
        [39      , 43    ,	0.018,	0.122,	0.79,	0,	0,	0,	0,	0,	1,	-360,	360],
        [40      , 41    ,	0.0006,	0.0076,	0.062,	0,	0,	0,	0,	0,	1,	-360,	360],
        [40      , 41    ,	0.0006,	0.0076,	0.062,	0,	0,	0,	0,	0,	1,	-360,	360],
        [41      , 42    ,	0.0042,	0.0513,	0.412,	0,	0,	0,	0,	0,	1,	-360,	360],
        [42      , 44    ,	0.0165,	0.192,	0.67333,	0,	0,	0,	0,	0,	1,	-360,	360],
        [42      , 44    ,	0.0165,	0.192,	0.67333,	0,	0,	0,	0,	0,	1,	-360,	360],
        [42      , 44    ,	0.0165,	0.192,	0.67333,	0,	0,	0,	0,	0,	1,	-360,	360],
        [43      , 45    ,	0.0103,	0.0709,	0.46,	0,	0,	0,	0,	0,	1,	-360,	360],
        [43      , 45    ,	0.0103,	0.0709,	0.46,	0,	0,	0,	0,	0,	1,	-360,	360],
        [44      , 45    ,	0.0043,	0.0532,	0.427,	0,	0,	0,	0,	0,	1,	-360,	360],
        [44      , 46    ,	0.0043,	0.0532,	0.427,	0,	0,	0,	0,	0,	1,	-360,	360],
        [44      , 46    ,	0.0043,	0.0532,	0.427,	0,	0,	0,	0,	0,	1,	-360,	360],
        [44      , 46    ,	0.0043,	0.0532,	0.427,	0,	0,	0,	0,	0,	1,	-360,	360],
        [44      , 46    ,	0.0043,	0.0532,	0.427,	0,	0,	0,	0,	0,	1,	-360,	360],
        [44      , 47    ,	0.004,	0.0494,	0.4,	0,	0,	0,	0,	0,	1,	-360,	360],
        [44      , 47    ,	0.004,	0.0494,	0.4,	0,	0,	0,	0,	0,	1,	-360,	360],
        [45      , 46    ,	0.0012,	0.0152,	0.122,	0,	0,	0,	0,	0,	1,	-360,	360],
        [45      , 46    ,	0.0012,	0.0152,	0.122,	0,	0,	0,	0,	0,	1,	-360,	360],
        [48      , 49    ,	0.002,	0.025,	0.39,	0,	0,	0,	0,	0,	1,	-360,	360],
        [48      , 49    ,	0.002,	0.025,	0.39,	0,	0,	0,	0,	0,	1,	-360,	360],
        [49      , 50    ,	0.0037,	0.046,	0.73,	0,	0,	0,	0,	0,	1,	-360,	360],
        [49      , 50    ,	0.0037,	0.046,	0.73,	0,	0,	0,	0,	0,	1,	-360,	360],
        [54      , 57    ,	0.023,	0.15,	0.56,	0,	0,	0,	0,	0,	1,	-360,	360],
        [54      , 57    ,	0.023,	0.15,	0.56,	0,	0,	0,	0,	0,	1,	-360,	360],
        [54      , 58    ,	0.026,	0.019,	0.87,	0,	0,	0,	0,	0,	1,	-360,	360],
        [54      , 58    ,	0.026,	0.019,	0.87,	0,	0,	0,	0,	0,	1,	-360,	360],
        [55      , 57    ,	0.0016,	0.017,	0.03,	0,	0,	0,	0,	0,	1,	-360,	360],
        [55      , 57    ,	0.0016,	0.017,	0.03,	0,	0,	0,	0,	0,	1,	-360,	360],
        [55      , 58    ,	0.0025,	0.028,	0.17,	0,	0,	0,	0,	0,	1,	-360,	360],
        [56      , 57    ,	0.0016,	0.017,	0.03,	0,	0,	0,	0,	0,	1,	-360,	360],
        [56      , 57    ,	0.0016,	0.017,	0.03,	0,	0,	0,	0,	0,	1,	-360,	360],
        [56      , 58    ,	0.003,	0.028,	0.14,	0,	0,	0,	0,	0,	1,	-360,	360],
        [57      , 58    ,	0.002,	0.019,	0.09,	0,	0,	0,	0,	0,	1,	-360,	360],
        [57      , 59    ,	0.09,	0.66,	0.3,	0,	0,	0,	0,	0,	1,	-360,	360],
        [57      , 59    ,	0.09,	0.66,	0.3,	0,	0,	0,	0,	0,	1,	-360,	360],
        [57      , 59    ,	0.09,	0.66,	0.3,	0,	0,	0,	0,	0,	1,	-360,	360],
        [57      , 59    ,	0.09,	0.66,	0.3,	0,	0,	0,	0,	0,	1,	-360,	360],
        [57      , 59    ,	0.09,	0.66,	0.3,	0,	0,	0,	0,	0,	1,	-360,	360],
        [57      , 59    ,	0.09,	0.66,	0.3,	0,	0,	0,	0,	0,	1,	-360,	360],
        [1       , 2     ,	0,	0.018,	0,	0,	0,	0,	1,	0,	1,	-360,	360],
        [3       , 8     ,	0,	0.008,	0,	0,	0,	0,	1.0101,	0,	1,	-360,	360],
        [4       , 11    ,	0,	0.0096,	0,	0,	0,	0,	1.0101,	0,	1,	-360,	360],
        [5       , 10    ,	0,	0.0102,	0,	0,	0,	0,	1.0101,	0,	1,	-360,	360],
        [6       , 17    ,	0,	0.008,	0,	0,	0,	0,	1.0101,	0,	1,	-360,	360],
        [11      , 12    ,	0,	0.0272,	0,	0,	0,	0,	0.9756,	0,	1,	-360,	360],
        [11      , 12    ,	0,	0.0272,	0,	0,	0,	0,	0.9756,	0,	1,	-360,	360],
        [11      , 12    ,	0,	0.0272,	0,	0,	0,	0,	0.9756,	0,	1,	-360,	360],
        [11      , 12    ,	0,	0.0272,	0,	0,	0,	0,	0.9756,	0,	1,	-360,	360],
        [15      , 16    ,	0,	0.0272,	0,	0,	0,	0,	1,	0,	1,	-360,	360],
        [15      , 16    ,	0,	0.0272,	0,	0,	0,	0,	1,	0,	1,	-360,	360],
        [15      , 16    ,	0,	0.0272,	0,	0,	0,	0,	1,	0,	1,	-360,	360],
        [15      , 16    ,	0,	0.0272,	0,	0,	0,	0,	1,	0,	1,	-360,	360],
        [20      , 22    ,	0,	0.004,	0,	0,	0,	0,	1,	0,	1,	-360,	360],
        [21      , 31    ,	0,	0.0169,	0,	0,	0,	0,	1,	0,	1,	-360,	360],
        [23      , 32    ,	0,	0.032,	0,	0,	0,	0,	0.9615,	0,	1,	-360,	360],
        [23      , 32    ,	0,	0.032,	0,	0,	0,	0,	0.9615,	0,	1,	-360,	360],
        [24      , 30    ,	0,	0.036,	0,	0,	0,	0,	1,	0,	1,	-360,	360],
        [24      , 30    ,	0,	0.036,	0,	0,	0,	0,	1,	0,	1,	-360,	360],
        [24      , 30    ,	0,	0.036,	0,	0,	0,	0,	1,	0,	1,	-360,	360],
        [24      , 33    ,	0,	0.024,	0,	0,	0,	0,	1,	0,	1,	-360,	360],
        [24      , 33    ,	0,	0.024,	0,	0,	0,	0,	1,	0,	1,	-360,	360],
        [27      , 34    ,	0,	0.027,	0,	0,	0,	0,	1,	0,	1,	-360,	360],
        [27      , 34    ,	0,	0.027,	0,	0,	0,	0,	1,	0,	1,	-360,	360],
        [35      , 44    ,	0,	0.01127,	0,	0,	0,	0,	1.0101,	0,	1,	-360,	360],
        [36      , 42    ,	0,	0.017,	0,	0,	0,	0,	1,	0,	1,	-360,	360],
        [37      , 41    ,	0,	0.0169,	0,	0,	0,	0,	1,	0,	1,	-360,	360],
        [38      , 39    ,	0,	0.017,	0,	0,	0,	0,	1,	0,	1,	-360,	360],
        [47      , 48    ,	0,	0.008,	0,	0,	0,	0,	1.02997219,	0,	1,	-360,	360],
        [47      , 48    ,	0,	0.008,	0,	0,	0,	0,	1.02997219,	0,	1,	-360,	360],
        [47      , 48    ,	0,	0.008,	0,	0,	0,	0,	1.02997219,	0,	1,	-360,	360],
        [51      , 54    ,	0,	0.051,	0,	0,	0,	0,	1.0152,	0,	1,	-360,	360],
        [52      , 55    ,	0,	0.016,	0,	0,	0,	0,	1.0204,	0,	1,	-360,	360],
        [53      , 56    ,	0,	0.05,	0,	0,	0,	0,	1.0204,	0,	1,	-360,	360]
    ])

     ##----- Generator bus control data  -----##
    # type of generator or inverter, min_m, max_m, min_d, max_d, min_p (p.u.), max_p (p.u.)
	#  type of generator or inverter: 9 - conventional generator, 0 - inverter with no optimize, 1 - inverter optimizing d, 2 - inverter optimizing m, 3 - inverters optimizing d and m
    ppc["gencontrol"] = array([
        [ 1          , 3          , 0.00382    ,  0.381972   , 0.038197   ,  3.819719   , -36.0      , 36.0       ],
        [ 3          , 3          , 0.011459   ,  1.145916   , 0.114592   ,  11.459156  , -108.0     , 108.0      ],
        [ 4          , 3          , 0.007958   ,  0.795775   , 0.079577   ,  7.957747   , -75.0      , 75.0       ],
        [ 5          , 3          , 0.006366   ,  0.63662    , 0.063662   ,  6.366198   , -60.0      , 60.0       ],
        [ 6          , 3          , 0.011459   ,  1.145916   , 0.114592   ,  11.459156  , -108.0     , 108.0      ],
        [ 20         , 3          , 0.013369   ,  1.336902   , 0.13369    ,  13.369015  , -126.0     , 126.0      ],
        [ 21         , 3          , 0.00382    ,  0.381972   , 0.038197   ,  3.819719   , -36.0      , 36.0       ],
        [ 35         , 3          , 0.005093   ,  0.509296   , 0.05093    ,  5.092958   , -48.0      , 48.0       ],
        [ 36         , 3          , 0.002865   ,  0.286479   , 0.028648   ,  2.864789   , -27.0      , 27.0       ],
        [ 37         , 3          , 0.005093   ,  0.509296   , 0.05093    ,  5.092958   , -48.0      , 48.0       ],
        [ 38         , 3          , 0.00573    ,  0.572958   , 0.057296   ,  5.729578   , -54.0      , 54.0       ],
        [ 51         , 3          , 0.00191    ,  0.190986   , 0.019099   ,  1.909859   , -18.0      , 18.0       ],
        [ 52         , 3          , 0.002546   ,  0.254648   , 0.025465   ,  2.546479   , -24.0      , 24.0       ],
        [ 53         , 3          , 0.00191    ,  0.190986   , 0.019099   ,  1.909859   , -18.0      , 18.0       ]
    ])

    # 108 ---> 118
    ###----- disturbances data -----###
    #1 - power-step: num, buses, start time, amplitude(\times p_0)
    #2 - power ramp: num, buses, start time, duration time, height (\times p_0)
    #3 - power fluctuation: num, buses, start time, time interval, date num
    #4 - 3psc: num, branch-f_bus,  branch-t_bus, nearest bus, short-circuit conductance (p.u.), start time, clearing time(\Delta t with second)
    #9: uniform distribution date on [-0.2, 0.2]

    ppc["disturbance"] = {
    1: array([
        [1,     5,      0,      -0.5, 0.15],
        [2,     2,      0,      -0.5, 0.09]
    ]),
    2: array([
        [1,    21,      0,      5,      -0.5, 0.09],
        [2,    58,      0,      5,      -0.5, 0.15]
    ]),
    3: array([
        [1,    38,      0,     0.5,    9, 0.6],
        [2,    35,     0,     0.5,      9, 0.3]
    ]),
    4: array([
        [1,    44,     45,       999,      999,    0,      0.1, 0.01],
        [2,    14,     19,       999,      999,    0,      0.1, 0.1]
    ]),
    9: array([
        -0.077752022,-0.049592684,-0.094386402,-0.027777255,0.106175442,0.07760974,0.010639525,0.145379902,-0.113145199,-0.173299214,0.027856593,-0.153232617,-0.123096728,-0.077041254,-0.152101278,-0.059589093,-0.06009897,-0.121105119,-0.017018885,0.072363903,0.170954442,-0.034889518,-0.060918945,0.037836957,0.170201299,-0.1546673,0.1972234,-0.071938968,-0.107488659,-0.088976472,-0.068018895,-0.06587186,-0.003419552,0.152372651,0.112508103,0.142640044,-0.049963844,-0.149540361,0.139890352,0.13228229,-0.075472623,0.055259011,-0.017222513,-0.13241881,0.012423058,-0.000117756,0.191749308,-0.080003032,-0.166717849,-0.149633579,-0.166748818,-0.179088528,0.199144351,-0.101607438,-0.105415065,0.149580196,-0.005620803,0.089868514,0.022076414,-0.094829629,0.111238813,0.133720447,0.121662029,0.141913883,-0.111726178,-0.14110605,0.032269891,0.120886645,0.009050625,-0.011489962,0.016302734,0.12436742,0.11313339,-0.092537767,0.147695992,0.174444751,0.15505781,-0.193334631,0.159925609,-0.099949322,0.099644356,0.079428698,-0.048152161,0.06028194,0.126261189,0.15150098,-0.147034132,-0.058805963,-0.094758118,0.051548502,0.020517378,-0.195080454,0.092211274,0.089238641,-0.091390137,-0.088318354,0.030346984,0.13823391,-0.160389818,-0.160731705
    ])
    }

    # parameters of discretization
    # time_ele_d1 - number of time elements for disturbance 1;
    # time_ele_d2_d - number of time element during the disturbance for disturbance 2;
    # t_f - assume t_0 = 0 for all disturbances
    # order - order of collocation
    ppc["param_disc"] = {
    'time_ele':{1: 20, 2: 20, 3: 20, 4: 20},
    'time_ele_d':{2: 4, 4: 4},
    'order':{1: 3, 2: 3, 3: 3, 4: 3},
    't_f':{1: 30, 2: 30, 3: 30, 4: 30},
    'colloc_point_radau': {1:(0, 1.0),2:(0, 0.333333, 1.0),3:(0, 0.155051, 0.644949, 1.0),4:(0, 0.088588, 0.409467, 0.787659, 1.0),5:(0, 0.057104, 0.276843, 0.583590, 0.860240, 1.0)}
    }

    ppc["freq_band"] = {
    1:{(0, 15):(49.5, 50.5), (15, 300):(49.85, 50.15)},
    2:{(0, 15):(49.5, 50.5), (15, 300):(49.85, 50.15)},
    3:{(0, 300):(49.85, 50.15)},
    4:{(0, 15):(49, 51), (15, 60):(49.5, 50.5), (60, 300):(49.85, 50.15)}
    }

    return ppc

# 216.683